hmd.cli: Relative humidity file names - file written by SWAT+ editor 2024-03-20 10:00:13.634688
filename
PolVrh_hmd.hmd
