pcp.cli: Precipitation file names - file written by SWAT+ editor 2024-03-20 10:00:13.725421
filename
PolVrh_pcp.pcp
