slr.cli: Solar radiation file names - file written by SWAT+ editor 2024-03-20 10:00:13.829646
filename
LetMb_slr.slr
