tmp.cli: Temperature file names - file written by SWAT+ editor 2024-03-20 10:00:13.923816
filename
PolVrh_tmp.tmp
