wnd.cli: Wind speed file names - file written by SWAT+ editor 2024-03-20 10:00:14.070707
filename
PolVrh_wnd.wnd
